$HMNAME MAT*                           1"Hinge_mat_dummy" "MAT1"
$HWCOLOR MAT*                          1       3
MAT1*                  1        210000.0                             0.3*       
*                7.85e-9                                                
ENDDATA
